# created with PyMOL 3.1.6.1
@<TRIPOS>MOLECULE
71296232
62 62 1                 
SMALL
USER_CHARGES
@<TRIPOS>ATOM
1	   P	5.135	-5.845	0.000	P.3	1	UNK0	0.000	
2	   O	4.269	-6.345	0.000	O.3	1	UNK0	0.000	
3	   O	2.537	-7.345	0.000	O.3	1	UNK0	0.000	
4	   O	6.001	-7.345	0.000	O.3	1	UNK0	0.000	
5	   O	2.537	-9.345	0.000	O.3	1	UNK0	0.000	
6	   O	6.001	-9.345	0.000	O.3	1	UNK0	0.000	
7	   O	4.269	-10.345	0.000	O.3	1	UNK0	0.000	
8	   O	6.001	-5.345	0.000	O.3	1	UNK0	0.000	
9	   O	4.635	-4.979	0.000	O.co2	1	UNK0	0.000	
10	   O	5.635	-6.711	0.000	O.co2	1	UNK0	0.000	
11	   O	6.867	-2.845	0.000	O.3	1	UNK0	0.000	
12	   O	8.599	-3.845	0.000	O.3	1	UNK0	0.000	
13	   O	8.599	-2.845	0.000	O.co2	1	UNK0	0.000	
14	   O	9.465	-5.345	0.000	O.co2	1	UNK0	0.000	
15	   C	4.269	-7.345	0.000	C.3	1	UNK0	0.000	
16	   C	3.403	-7.845	0.000	C.3	1	UNK0	0.000	
17	   C	5.135	-7.845	0.000	C.3	1	UNK0	0.000	
18	   C	3.403	-8.845	0.000	C.3	1	UNK0	0.000	
19	   C	5.135	-8.845	0.000	C.3	1	UNK0	0.000	
20	   C	4.269	-9.345	0.000	C.3	1	UNK0	0.000	
21	   C	6.001	-4.345	0.000	C.3	1	UNK0	0.000	
22	   C	6.867	-3.845	0.000	C.3	1	UNK0	0.000	
23	   C	7.733	-4.345	0.000	C.3	1	UNK0	0.000	
24	   C	15.527	-3.845	0.000	C.3	1	UNK0	0.000	
25	   C	16.393	-4.345	0.000	C.3	1	UNK0	0.000	
26	   C	14.661	-4.345	0.000	C.3	1	UNK0	0.000	
27	   C	17.259	-3.845	0.000	C.3	1	UNK0	0.000	
28	   C	13.795	-3.845	0.000	C.3	1	UNK0	0.000	
29	   C	18.125	-4.345	0.000	C.3	1	UNK0	0.000	
30	   C	12.929	-4.345	0.000	C.3	1	UNK0	0.000	
31	   C	18.991	-3.845	0.000	C.3	1	UNK0	0.000	
32	   C	12.063	-3.845	0.000	C.3	1	UNK0	0.000	
33	   C	19.857	-4.345	0.000	C.3	1	UNK0	0.000	
34	   C	11.197	-4.345	0.000	C.3	1	UNK0	0.000	
35	   C	10.331	-3.845	0.000	C.3	1	UNK0	0.000	
36	   C	20.723	-3.845	0.000	C.3	1	UNK0	0.000	
37	   C	7.733	-2.345	0.000	C.2	1	UNK0	0.000	
38	   C	7.733	-1.345	0.000	C.3	1	UNK0	0.000	
39	   C	8.599	-0.845	0.000	C.3	1	UNK0	0.000	
40	   C	9.465	-4.345	0.000	C.2	1	UNK0	0.000	
41	   C	8.599	0.155	0.000	C.3	1	UNK0	0.000	
42	   C	9.465	0.655	0.000	C.3	1	UNK0	0.000	
43	   C	21.590	-4.345	0.000	C.3	1	UNK0	0.000	
44	   C	9.465	1.655	0.000	C.3	1	UNK0	0.000	
45	   C	10.331	2.155	0.000	C.3	1	UNK0	0.000	
46	   C	9.465	6.655	0.000	C.3	1	UNK0	0.000	
47	   C	9.465	7.655	0.000	C.3	1	UNK0	0.000	
48	   C	10.331	3.155	0.000	C.3	1	UNK0	0.000	
49	   C	10.331	6.155	0.000	C.3	1	UNK0	0.000	
50	   C	8.599	8.155	0.000	C.3	1	UNK0	0.000	
51	   C	22.455	-3.845	0.000	C.3	1	UNK0	0.000	
52	   C	10.331	5.155	0.000	C.3	1	UNK0	0.000	
53	   C	8.599	9.155	0.000	C.3	1	UNK0	0.000	
54	   C	11.197	3.655	0.000	C.2	1	UNK0	0.000	
55	   C	11.197	4.655	0.000	C.2	1	UNK0	0.000	
56	   C	7.733	9.655	0.000	C.3	1	UNK0	0.000	
57	   C	7.733	10.655	0.000	C.3	1	UNK0	0.000	
58	   H	2.000	-7.655	0.000	 H	1	UNK0	0.000	
59	   H	6.538	-7.655	0.000	 H	1	UNK0	0.000	
60	   H	2.537	-9.965	0.000	 H	1	UNK0	0.000	
61	   H	6.001	-9.965	0.000	 H	1	UNK0	0.000	
62	   H	3.732	-10.655	0.000	 H	1	UNK0	0.000	
@<TRIPOS>BOND
1 1 2 1
2 1 8 1
3 1 9 1
4 1 10 2
5 2 15 1
6 3 58 1
7 4 59 1
8 5 60 1
9 6 61 1
10 7 20 1
11 7 62 1
12 8 21 1
13 11 37 1
14 12 23 1
15 12 40 1
16 13 37 2
17 14 40 2
18 15 16 1
19 15 17 1
20 3 16 1
21 16 18 1
22 4 17 1
23 17 19 1
24 5 18 1
25 18 20 1
26 6 19 1
27 19 20 1
28 21 22 1
29 11 22 1
30 22 23 1
31 24 25 1
32 24 26 1
33 25 27 1
34 26 28 1
35 27 29 1
36 28 30 1
37 29 31 1
38 30 32 1
39 31 33 1
40 32 34 1
41 33 36 1
42 34 35 1
43 35 40 1
44 36 43 1
45 37 38 1
46 38 39 1
47 39 41 1
48 41 42 1
49 42 44 1
50 43 51 1
51 44 45 1
52 45 48 1
53 46 47 1
54 46 49 1
55 47 50 1
56 48 54 1
57 49 52 1
58 50 53 1
59 52 55 1
60 53 56 1
61 54 55 2
62 56 57 1
@<TRIPOS>SUBSTRUCTURE
1	UNK0	1	GROUP	1 ****	UNK
