71296232
  -OEChem-11052510282D

138138  0     1  0  0  0  0  0999 V2000
    5.1350   -5.8450    0.0000 P   0  0  3  0  0  0  0  0  0  0  0  0
    4.2690   -6.3450    0.0000 O   0  0  0  0  0  0  0  0  0  0  0  0
    2.5369   -7.3450    0.0000 O   0  0  0  0  0  0  0  0  0  0  0  0
    6.0010   -7.3450    0.0000 O   0  0  0  0  0  0  0  0  0  0  0  0
    2.5369   -9.3450    0.0000 O   0  0  0  0  0  0  0  0  0  0  0  0
    6.0010   -9.3450    0.0000 O   0  0  0  0  0  0  0  0  0  0  0  0
    4.2690  -10.3450    0.0000 O   0  0  0  0  0  0  0  0  0  0  0  0
    6.0010   -5.3450    0.0000 O   0  0  0  0  0  0  0  0  0  0  0  0
    4.6350   -4.9790    0.0000 O   0  0  0  0  0  0  0  0  0  0  0  0
    5.6350   -6.7110    0.0000 O   0  0  0  0  0  0  0  0  0  0  0  0
    6.8671   -2.8450    0.0000 O   0  0  0  0  0  0  0  0  0  0  0  0
    8.5991   -3.8450    0.0000 O   0  0  0  0  0  0  0  0  0  0  0  0
    8.5991   -2.8450    0.0000 O   0  0  0  0  0  0  0  0  0  0  0  0
    9.4651   -5.3450    0.0000 O   0  0  0  0  0  0  0  0  0  0  0  0
    4.2690   -7.3450    0.0000 C   0  0  0  0  0  0  0  0  0  0  0  0
    3.4030   -7.8450    0.0000 C   0  0  1  0  0  0  0  0  0  0  0  0
    5.1350   -7.8450    0.0000 C   0  0  1  0  0  0  0  0  0  0  0  0
    3.4030   -8.8450    0.0000 C   0  0  1  0  0  0  0  0  0  0  0  0
    5.1350   -8.8450    0.0000 C   0  0  2  0  0  0  0  0  0  0  0  0
    4.2690   -9.3450    0.0000 C   0  0  0  0  0  0  0  0  0  0  0  0
    6.0010   -4.3450    0.0000 C   0  0  0  0  0  0  0  0  0  0  0  0
    6.8671   -3.8450    0.0000 C   0  0  1  0  0  0  0  0  0  0  0  0
    7.7331   -4.3450    0.0000 C   0  0  0  0  0  0  0  0  0  0  0  0
   15.5273   -3.8450    0.0000 C   0  0  0  0  0  0  0  0  0  0  0  0
   16.3933   -4.3450    0.0000 C   0  0  0  0  0  0  0  0  0  0  0  0
   14.6613   -4.3450    0.0000 C   0  0  0  0  0  0  0  0  0  0  0  0
   17.2594   -3.8450    0.0000 C   0  0  0  0  0  0  0  0  0  0  0  0
   13.7953   -3.8450    0.0000 C   0  0  0  0  0  0  0  0  0  0  0  0
   18.1254   -4.3450    0.0000 C   0  0  0  0  0  0  0  0  0  0  0  0
   12.9292   -4.3450    0.0000 C   0  0  0  0  0  0  0  0  0  0  0  0
   18.9914   -3.8450    0.0000 C   0  0  0  0  0  0  0  0  0  0  0  0
   12.0632   -3.8450    0.0000 C   0  0  0  0  0  0  0  0  0  0  0  0
   19.8574   -4.3450    0.0000 C   0  0  0  0  0  0  0  0  0  0  0  0
   11.1972   -4.3450    0.0000 C   0  0  0  0  0  0  0  0  0  0  0  0
   10.3312   -3.8450    0.0000 C   0  0  0  0  0  0  0  0  0  0  0  0
   20.7235   -3.8450    0.0000 C   0  0  0  0  0  0  0  0  0  0  0  0
    7.7331   -2.3450    0.0000 C   0  0  0  0  0  0  0  0  0  0  0  0
    7.7331   -1.3450    0.0000 C   0  0  0  0  0  0  0  0  0  0  0  0
    8.5991   -0.8450    0.0000 C   0  0  0  0  0  0  0  0  0  0  0  0
    9.4651   -4.3450    0.0000 C   0  0  0  0  0  0  0  0  0  0  0  0
    8.5991    0.1550    0.0000 C   0  0  0  0  0  0  0  0  0  0  0  0
    9.4651    0.6550    0.0000 C   0  0  0  0  0  0  0  0  0  0  0  0
   21.5895   -4.3450    0.0000 C   0  0  0  0  0  0  0  0  0  0  0  0
    9.4651    1.6550    0.0000 C   0  0  0  0  0  0  0  0  0  0  0  0
   10.3312    2.1550    0.0000 C   0  0  0  0  0  0  0  0  0  0  0  0
    9.4651    6.6550    0.0000 C   0  0  0  0  0  0  0  0  0  0  0  0
    9.4651    7.6550    0.0000 C   0  0  0  0  0  0  0  0  0  0  0  0
   10.3312    3.1550    0.0000 C   0  0  0  0  0  0  0  0  0  0  0  0
   10.3312    6.1550    0.0000 C   0  0  0  0  0  0  0  0  0  0  0  0
    8.5991    8.1550    0.0000 C   0  0  0  0  0  0  0  0  0  0  0  0
   22.4555   -3.8450    0.0000 C   0  0  0  0  0  0  0  0  0  0  0  0
   10.3312    5.1550    0.0000 C   0  0  0  0  0  0  0  0  0  0  0  0
    8.5991    9.1550    0.0000 C   0  0  0  0  0  0  0  0  0  0  0  0
   11.1972    3.6550    0.0000 C   0  0  0  0  0  0  0  0  0  0  0  0
   11.1972    4.6550    0.0000 C   0  0  0  0  0  0  0  0  0  0  0  0
    7.7331    9.6550    0.0000 C   0  0  0  0  0  0  0  0  0  0  0  0
    7.7331   10.6550    0.0000 C   0  0  0  0  0  0  0  0  0  0  0  0
    4.8059   -7.0350    0.0000 H   0  0  0  0  0  0  0  0  0  0  0  0
    3.4030   -7.2250    0.0000 H   0  0  0  0  0  0  0  0  0  0  0  0
    5.6720   -8.1550    0.0000 H   0  0  0  0  0  0  0  0  0  0  0  0
    3.4030   -9.4650    0.0000 H   0  0  0  0  0  0  0  0  0  0  0  0
    5.1350   -9.4650    0.0000 H   0  0  0  0  0  0  0  0  0  0  0  0
    3.7321   -9.6550    0.0000 H   0  0  0  0  0  0  0  0  0  0  0  0
    2.0000   -7.6550    0.0000 H   0  0  0  0  0  0  0  0  0  0  0  0
    6.5380   -7.6550    0.0000 H   0  0  0  0  0  0  0  0  0  0  0  0
    2.5369   -9.9650    0.0000 H   0  0  0  0  0  0  0  0  0  0  0  0
    6.0010   -9.9650    0.0000 H   0  0  0  0  0  0  0  0  0  0  0  0
    3.7321  -10.6550    0.0000 H   0  0  0  0  0  0  0  0  0  0  0  0
    4.0150   -4.9790    0.0000 H   0  0  0  0  0  0  0  0  0  0  0  0
    5.7890   -3.7624    0.0000 H   0  0  0  0  0  0  0  0  0  0  0  0
    5.3905   -4.4527    0.0000 H   0  0  0  0  0  0  0  0  0  0  0  0
    6.3301   -3.5350    0.0000 H   0  0  0  0  0  0  0  0  0  0  0  0
    7.3346   -4.8200    0.0000 H   0  0  0  0  0  0  0  0  0  0  0  0
    8.1316   -4.8200    0.0000 H   0  0  0  0  0  0  0  0  0  0  0  0
   15.9258   -3.3701    0.0000 H   0  0  0  0  0  0  0  0  0  0  0  0
   15.1288   -3.3701    0.0000 H   0  0  0  0  0  0  0  0  0  0  0  0
   15.9948   -4.8200    0.0000 H   0  0  0  0  0  0  0  0  0  0  0  0
   16.7919   -4.8200    0.0000 H   0  0  0  0  0  0  0  0  0  0  0  0
   14.2628   -4.8200    0.0000 H   0  0  0  0  0  0  0  0  0  0  0  0
   15.0598   -4.8200    0.0000 H   0  0  0  0  0  0  0  0  0  0  0  0
   17.6579   -3.3701    0.0000 H   0  0  0  0  0  0  0  0  0  0  0  0
   16.8608   -3.3701    0.0000 H   0  0  0  0  0  0  0  0  0  0  0  0
   14.1938   -3.3701    0.0000 H   0  0  0  0  0  0  0  0  0  0  0  0
   13.3967   -3.3701    0.0000 H   0  0  0  0  0  0  0  0  0  0  0  0
   17.7269   -4.8200    0.0000 H   0  0  0  0  0  0  0  0  0  0  0  0
   18.5239   -4.8200    0.0000 H   0  0  0  0  0  0  0  0  0  0  0  0
   12.5307   -4.8200    0.0000 H   0  0  0  0  0  0  0  0  0  0  0  0
   13.3278   -4.8200    0.0000 H   0  0  0  0  0  0  0  0  0  0  0  0
   19.3899   -3.3701    0.0000 H   0  0  0  0  0  0  0  0  0  0  0  0
   18.5929   -3.3701    0.0000 H   0  0  0  0  0  0  0  0  0  0  0  0
   12.4617   -3.3701    0.0000 H   0  0  0  0  0  0  0  0  0  0  0  0
   11.6647   -3.3701    0.0000 H   0  0  0  0  0  0  0  0  0  0  0  0
   19.4589   -4.8200    0.0000 H   0  0  0  0  0  0  0  0  0  0  0  0
   20.2560   -4.8200    0.0000 H   0  0  0  0  0  0  0  0  0  0  0  0
   10.7987   -4.8200    0.0000 H   0  0  0  0  0  0  0  0  0  0  0  0
   11.5957   -4.8200    0.0000 H   0  0  0  0  0  0  0  0  0  0  0  0
   10.7297   -3.3701    0.0000 H   0  0  0  0  0  0  0  0  0  0  0  0
    9.9326   -3.3701    0.0000 H   0  0  0  0  0  0  0  0  0  0  0  0
   21.1220   -3.3701    0.0000 H   0  0  0  0  0  0  0  0  0  0  0  0
   20.3249   -3.3701    0.0000 H   0  0  0  0  0  0  0  0  0  0  0  0
    7.5210   -0.7624    0.0000 H   0  0  0  0  0  0  0  0  0  0  0  0
    7.1225   -1.4527    0.0000 H   0  0  0  0  0  0  0  0  0  0  0  0
    8.8112   -1.4276    0.0000 H   0  0  0  0  0  0  0  0  0  0  0  0
    9.2097   -0.7373    0.0000 H   0  0  0  0  0  0  0  0  0  0  0  0
    8.3871    0.7376    0.0000 H   0  0  0  0  0  0  0  0  0  0  0  0
    7.9885    0.0473    0.0000 H   0  0  0  0  0  0  0  0  0  0  0  0
    9.6772    0.0724    0.0000 H   0  0  0  0  0  0  0  0  0  0  0  0
   10.0757    0.7627    0.0000 H   0  0  0  0  0  0  0  0  0  0  0  0
   21.1910   -4.8200    0.0000 H   0  0  0  0  0  0  0  0  0  0  0  0
   21.9880   -4.8200    0.0000 H   0  0  0  0  0  0  0  0  0  0  0  0
    9.2531    2.2376    0.0000 H   0  0  0  0  0  0  0  0  0  0  0  0
    8.8546    1.5473    0.0000 H   0  0  0  0  0  0  0  0  0  0  0  0
   10.5432    1.5724    0.0000 H   0  0  0  0  0  0  0  0  0  0  0  0
   10.9417    2.2627    0.0000 H   0  0  0  0  0  0  0  0  0  0  0  0
    8.8546    6.7627    0.0000 H   0  0  0  0  0  0  0  0  0  0  0  0
    9.2531    6.0724    0.0000 H   0  0  0  0  0  0  0  0  0  0  0  0
   10.0757    7.5473    0.0000 H   0  0  0  0  0  0  0  0  0  0  0  0
    9.6772    8.2376    0.0000 H   0  0  0  0  0  0  0  0  0  0  0  0
   10.1191    3.7376    0.0000 H   0  0  0  0  0  0  0  0  0  0  0  0
    9.7206    3.0473    0.0000 H   0  0  0  0  0  0  0  0  0  0  0  0
   10.9417    6.0473    0.0000 H   0  0  0  0  0  0  0  0  0  0  0  0
   10.5432    6.7376    0.0000 H   0  0  0  0  0  0  0  0  0  0  0  0
    7.9885    8.2627    0.0000 H   0  0  0  0  0  0  0  0  0  0  0  0
    8.3871    7.5724    0.0000 H   0  0  0  0  0  0  0  0  0  0  0  0
   22.7655   -4.3819    0.0000 H   0  0  0  0  0  0  0  0  0  0  0  0
   22.9925   -3.5350    0.0000 H   0  0  0  0  0  0  0  0  0  0  0  0
   22.1455   -3.3081    0.0000 H   0  0  0  0  0  0  0  0  0  0  0  0
    9.7206    5.2627    0.0000 H   0  0  0  0  0  0  0  0  0  0  0  0
   10.1191    4.5724    0.0000 H   0  0  0  0  0  0  0  0  0  0  0  0
    9.2097    9.0473    0.0000 H   0  0  0  0  0  0  0  0  0  0  0  0
    8.8112    9.7376    0.0000 H   0  0  0  0  0  0  0  0  0  0  0  0
   11.7341    3.3450    0.0000 H   0  0  0  0  0  0  0  0  0  0  0  0
   11.7341    4.9650    0.0000 H   0  0  0  0  0  0  0  0  0  0  0  0
    7.1225    9.7627    0.0000 H   0  0  0  0  0  0  0  0  0  0  0  0
    7.5210    9.0724    0.0000 H   0  0  0  0  0  0  0  0  0  0  0  0
    8.3531   10.6550    0.0000 H   0  0  0  0  0  0  0  0  0  0  0  0
    7.7331   11.2750    0.0000 H   0  0  0  0  0  0  0  0  0  0  0  0
    7.1131   10.6550    0.0000 H   0  0  0  0  0  0  0  0  0  0  0  0
  1  2  1  0  0  0  0
  1  8  1  0  0  0  0
  1  9  1  0  0  0  0
  1 10  2  0  0  0  0
  2 15  1  0  0  0  0
 16  3  1  1  0  0  0
  3 64  1  0  0  0  0
 17  4  1  6  0  0  0
  4 65  1  0  0  0  0
 18  5  1  1  0  0  0
  5 66  1  0  0  0  0
 19  6  1  1  0  0  0
  6 67  1  0  0  0  0
  7 20  1  0  0  0  0
  7 68  1  0  0  0  0
  8 21  1  0  0  0  0
  9 69  1  0  0  0  0
 22 11  1  6  0  0  0
 11 37  1  0  0  0  0
 12 23  1  0  0  0  0
 12 40  1  0  0  0  0
 13 37  2  0  0  0  0
 14 40  2  0  0  0  0
 15 16  1  0  0  0  0
 15 17  1  0  0  0  0
 15 58  1  0  0  0  0
 16 18  1  0  0  0  0
 16 59  1  0  0  0  0
 17 19  1  0  0  0  0
 17 60  1  0  0  0  0
 18 20  1  0  0  0  0
 18 61  1  0  0  0  0
 19 20  1  0  0  0  0
 19 62  1  0  0  0  0
 20 63  1  0  0  0  0
 21 22  1  0  0  0  0
 21 70  1  0  0  0  0
 21 71  1  0  0  0  0
 22 23  1  0  0  0  0
 22 72  1  0  0  0  0
 23 73  1  0  0  0  0
 23 74  1  0  0  0  0
 24 25  1  0  0  0  0
 24 26  1  0  0  0  0
 24 75  1  0  0  0  0
 24 76  1  0  0  0  0
 25 27  1  0  0  0  0
 25 77  1  0  0  0  0
 25 78  1  0  0  0  0
 26 28  1  0  0  0  0
 26 79  1  0  0  0  0
 26 80  1  0  0  0  0
 27 29  1  0  0  0  0
 27 81  1  0  0  0  0
 27 82  1  0  0  0  0
 28 30  1  0  0  0  0
 28 83  1  0  0  0  0
 28 84  1  0  0  0  0
 29 31  1  0  0  0  0
 29 85  1  0  0  0  0
 29 86  1  0  0  0  0
 30 32  1  0  0  0  0
 30 87  1  0  0  0  0
 30 88  1  0  0  0  0
 31 33  1  0  0  0  0
 31 89  1  0  0  0  0
 31 90  1  0  0  0  0
 32 34  1  0  0  0  0
 32 91  1  0  0  0  0
 32 92  1  0  0  0  0
 33 36  1  0  0  0  0
 33 93  1  0  0  0  0
 33 94  1  0  0  0  0
 34 35  1  0  0  0  0
 34 95  1  0  0  0  0
 34 96  1  0  0  0  0
 35 40  1  0  0  0  0
 35 97  1  0  0  0  0
 35 98  1  0  0  0  0
 36 43  1  0  0  0  0
 36 99  1  0  0  0  0
 36100  1  0  0  0  0
 37 38  1  0  0  0  0
 38 39  1  0  0  0  0
 38101  1  0  0  0  0
 38102  1  0  0  0  0
 39 41  1  0  0  0  0
 39103  1  0  0  0  0
 39104  1  0  0  0  0
 41 42  1  0  0  0  0
 41105  1  0  0  0  0
 41106  1  0  0  0  0
 42 44  1  0  0  0  0
 42107  1  0  0  0  0
 42108  1  0  0  0  0
 43 51  1  0  0  0  0
 43109  1  0  0  0  0
 43110  1  0  0  0  0
 44 45  1  0  0  0  0
 44111  1  0  0  0  0
 44112  1  0  0  0  0
 45 48  1  0  0  0  0
 45113  1  0  0  0  0
 45114  1  0  0  0  0
 46 47  1  0  0  0  0
 46 49  1  0  0  0  0
 46115  1  0  0  0  0
 46116  1  0  0  0  0
 47 50  1  0  0  0  0
 47117  1  0  0  0  0
 47118  1  0  0  0  0
 48 54  1  0  0  0  0
 48119  1  0  0  0  0
 48120  1  0  0  0  0
 49 52  1  0  0  0  0
 49121  1  0  0  0  0
 49122  1  0  0  0  0
 50 53  1  0  0  0  0
 50123  1  0  0  0  0
 50124  1  0  0  0  0
 51125  1  0  0  0  0
 51126  1  0  0  0  0
 51127  1  0  0  0  0
 52 55  1  0  0  0  0
 52128  1  0  0  0  0
 52129  1  0  0  0  0
 53 56  1  0  0  0  0
 53130  1  0  0  0  0
 53131  1  0  0  0  0
 54 55  2  0  0  0  0
 54132  1  0  0  0  0
 55133  1  0  0  0  0
 56 57  1  0  0  0  0
 56134  1  0  0  0  0
 56135  1  0  0  0  0
 57136  1  0  0  0  0
 57137  1  0  0  0  0
 57138  1  0  0  0  0
M  END
> <PUBCHEM_COMPOUND_CID>
71296232

> <PUBCHEM_COMPOUND_CANONICALIZED>
1

> <PUBCHEM_CACTVS_COMPLEXITY>
1060

> <PUBCHEM_CACTVS_HBOND_ACCEPTOR>
13

> <PUBCHEM_CACTVS_HBOND_DONOR>
6

> <PUBCHEM_CACTVS_ROTATABLE_BOND>
39

> <PUBCHEM_CACTVS_SUBSKEYS>
AAADcfB8PAIAAAAAAAAAAAAAAAAAAAAAAAAwAAAAAAAAAAAAAAAAGgAACCAACBSggAICCAAABxCIQCDSCIAAAAAgAAAICAEAAAgBEBIAAQACQAAFgAALAAPI6KSAAAAAAAAAAAACAAAQAACAAAAAAAAAAA==

> <PUBCHEM_IUPAC_OPENEYE_NAME>
[(1R)-1-(hexadecanoyloxymethyl)-2-[hydroxy-[(2R,3R,5S,6R)-2,3,4,5,6-pentahydroxycyclohexoxy]phosphoryl]oxy-ethyl] (Z)-octadec-9-enoate

> <PUBCHEM_IUPAC_CAS_NAME>
(Z)-9-octadecenoic acid [(2R)-1-[hydroxy-[(2R,3R,5S,6R)-2,3,4,5,6-pentahydroxycyclohexyl]oxyphosphoryl]oxy-3-(1-oxohexadecoxy)propan-2-yl] ester

> <PUBCHEM_IUPAC_NAME_MARKUP>
[(2<I>R</I>)-1-hexadecanoyloxy-3-[hydroxy-[(2<I>R</I>,3<I>R</I>,5<I>S</I>,6<I>R</I>)-2,3,4,5,6-pentahydroxycyclohexyl]oxyphosphoryl]oxypropan-2-yl] (<I>Z</I>)-octadec-9-enoate

> <PUBCHEM_IUPAC_NAME>
[(2R)-1-hexadecanoyloxy-3-[hydroxy-[(2R,3R,5S,6R)-2,3,4,5,6-pentahydroxycyclohexyl]oxyphosphoryl]oxypropan-2-yl] (Z)-octadec-9-enoate

> <PUBCHEM_IUPAC_SYSTEMATIC_NAME>
[(2R)-1-hexadecanoyloxy-3-[oxidanyl-[(2R,3R,5S,6R)-2,3,4,5,6-pentakis(oxidanyl)cyclohexyl]oxy-phosphoryl]oxy-propan-2-yl] (Z)-octadec-9-enoate

> <PUBCHEM_IUPAC_TRADITIONAL_NAME>
(Z)-octadec-9-enoic acid [(1R)-1-(hexadecanoyloxymethyl)-2-[hydroxy-[(2R,3R,5S,6R)-2,3,4,5,6-pentahydroxycyclohexoxy]phosphoryl]oxy-ethyl] ester

> <PUBCHEM_IUPAC_INCHI>
InChI=1S/C43H81O13P/c1-3-5-7-9-11-13-15-17-18-20-22-24-26-28-30-32-37(45)55-35(34-54-57(51,52)56-43-41(49)39(47)38(46)40(48)42(43)50)33-53-36(44)31-29-27-25-23-21-19-16-14-12-10-8-6-4-2/h17-18,35,38-43,46-50H,3-16,19-34H2,1-2H3,(H,51,52)/b18-17-/t35-,38?,39-,40+,41-,42-,43?/m1/s1

> <PUBCHEM_IUPAC_INCHIKEY>
PDLAMJKMOKWLAJ-ZNHRTHKOSA-N

> <PUBCHEM_XLOGP3_AA>
10.4

> <PUBCHEM_EXACT_MASS>
836.54147963

> <PUBCHEM_MOLECULAR_FORMULA>
C43H81O13P

> <PUBCHEM_MOLECULAR_WEIGHT>
837.1

> <PUBCHEM_SMILES>
CCCCCCCCCCCCCCCC(=O)OC[C@H](COP(=O)(O)OC1[C@@H]([C@H](C([C@H]([C@H]1O)O)O)O)O)OC(=O)CCCCCCC/C=C\CCCCCCCC

> <PUBCHEM_CONNECTIVITY_SMILES>
CCCCCCCCCCCCCCCC(=O)OCC(COP(=O)(O)OC1C(C(C(C(C1O)O)O)O)O)OC(=O)CCCCCCCC=CCCCCCCCC

> <PUBCHEM_CACTVS_TPSA>
210

> <PUBCHEM_MONOISOTOPIC_WEIGHT>
836.54147963

> <PUBCHEM_TOTAL_CHARGE>
0

> <PUBCHEM_HEAVY_ATOM_COUNT>
57

> <PUBCHEM_ATOM_DEF_STEREO_COUNT>
5

> <PUBCHEM_ATOM_UDEF_STEREO_COUNT>
0

> <PUBCHEM_BOND_DEF_STEREO_COUNT>
1

> <PUBCHEM_BOND_UDEF_STEREO_COUNT>
0

> <PUBCHEM_ISOTOPIC_ATOM_COUNT>
0

> <PUBCHEM_COMPONENT_COUNT>
1

> <PUBCHEM_CACTVS_TAUTO_COUNT>
-1

> <PUBCHEM_COORDINATE_TYPE>
1
5
255

> <PUBCHEM_BONDANNOTATIONS>
22  11  6
16  3  5
17  4  6
18  5  5
19  6  5

$$$$
